/Users/centurion616/Desktop/Silicon-Virovore/results/ablation-baseline-619/structures/MKQAVNALLVFFAGSSDAIRR.pdb
 OpenBabel10062616413D

328329  0  0  1  0  0  0  0  0999 V2000
   -4.3360   -3.5540  -13.5060 N   0  0  0  0  0  0  0  0  0  0  0  0
   -5.1790   -2.9890  -12.4550 C   0  0  2  0  0  0  0  0  0  0  0  0
   -4.8820   -3.6420  -11.1090 C   0  0  0  0  0  0  0  0  0  0  0  0
   -6.6590   -3.1600  -12.8030 C   0  0  0  0  0  0  0  0  0  0  0  0
   -4.7600   -2.9540  -10.0950 O   0  0  0  0  0  0  0  0  0  0  0  0
   -7.3890   -1.8470  -13.0360 C   0  0  0  0  0  0  0  0  0  0  0  0
   -9.1600   -2.0910  -13.4500 S   0  0  0  0  0  0  0  0  0  0  0  0
   -9.8210   -0.4620  -13.0010 C   0  0  0  0  0  0  0  0  0  0  0  0
   -4.8330   -5.0090  -10.9300 N   0  0  0  0  0  0  0  0  0  0  0  0
   -4.6030   -5.6760   -9.6510 C   0  0  2  0  0  0  0  0  0  0  0  0
   -3.2430   -5.3000   -9.0710 C   0  0  0  0  0  0  0  0  0  0  0  0
   -4.7030   -7.1940   -9.8120 C   0  0  0  0  0  0  0  0  0  0  0  0
   -3.1030   -5.1390   -7.8570 O   0  0  0  0  0  0  0  0  0  0  0  0
   -6.1290   -7.7240   -9.8180 C   0  0  0  0  0  0  0  0  0  0  0  0
   -6.1600   -9.2460   -9.8750 C   0  0  0  0  0  0  0  0  0  0  0  0
   -7.5850   -9.7740   -9.9730 C   0  0  0  0  0  0  0  0  0  0  0  0
   -7.6160  -11.2610  -10.1090 N   0  0  0  0  0  0  0  0  0  0  0  0
   -2.2720   -5.1300   -9.9810 N   0  0  0  0  0  0  0  0  0  0  0  0
   -0.9250   -4.8290   -9.5090 C   0  0  2  0  0  0  0  0  0  0  0  0
   -0.8740   -3.4660   -8.8230 C   0  0  0  0  0  0  0  0  0  0  0  0
    0.0730   -4.8710  -10.6670 C   0  0  0  0  0  0  0  0  0  0  0  0
   -0.1710   -3.2930   -7.8250 O   0  0  0  0  0  0  0  0  0  0  0  0
    0.3390   -6.2720  -11.1990 C   0  0  0  0  0  0  0  0  0  0  0  0
    1.3460   -6.2890  -12.3330 C   0  0  0  0  0  0  0  0  0  0  0  0
    1.8000   -7.4800  -12.7070 N   0  0  0  0  0  0  0  0  0  0  0  0
    1.7140   -5.2380  -12.8700 O   0  0  0  0  0  0  0  0  0  0  0  0
   -1.6100   -2.6120   -9.3720 N   0  0  0  0  0  0  0  0  0  0  0  0
   -1.6290   -1.2530   -8.8370 C   0  0  2  0  0  0  0  0  0  0  0  0
   -2.2250   -1.2240   -7.4330 C   0  0  0  0  0  0  0  0  0  0  0  0
   -2.4130   -0.3270   -9.7640 C   0  0  0  0  0  0  0  0  0  0  0  0
   -1.7180   -0.5270   -6.5500 O   0  0  0  0  0  0  0  0  0  0  0  0
   -3.2870   -2.0290   -7.2670 N   0  0  0  0  0  0  0  0  0  0  0  0
   -3.9400   -2.0670   -5.9640 C   0  0  2  0  0  0  0  0  0  0  0  0
   -2.9920   -2.6640   -4.9270 C   0  0  0  0  0  0  0  0  0  0  0  0
   -5.2550   -2.8770   -6.0110 C   0  0  0  0  0  0  0  0  0  0  0  0
   -2.9220   -2.1870   -3.7920 O   0  0  0  0  0  0  0  0  0  0  0  0
   -5.8650   -3.0000   -4.6160 C   0  0  0  0  0  0  0  0  0  0  0  0
   -6.2460   -2.2280   -6.9760 C   0  0  0  0  0  0  0  0  0  0  0  0
   -2.3650   -3.6570   -5.3630 N   0  0  0  0  0  0  0  0  0  0  0  0
   -1.4290   -4.2970   -4.4460 C   0  0  2  0  0  0  0  0  0  0  0  0
   -0.3070   -3.3470   -4.0360 C   0  0  0  0  0  0  0  0  0  0  0  0
   -0.8480   -5.5670   -5.0710 C   0  0  0  0  0  0  0  0  0  0  0  0
    0.0930   -3.3170   -2.8710 O   0  0  0  0  0  0  0  0  0  0  0  0
   -1.7860   -6.7530   -4.9640 C   0  0  0  0  0  0  0  0  0  0  0  0
   -1.6320   -7.7150   -5.8660 N   0  0  0  0  0  0  0  0  0  0  0  0
   -2.6430   -6.8040   -4.0780 O   0  0  0  0  0  0  0  0  0  0  0  0
    0.1760   -2.6060   -5.0030 N   0  0  0  0  0  0  0  0  0  0  0  0
    1.2580   -1.6630   -4.7320 C   0  0  2  0  0  0  0  0  0  0  0  0
    0.8100   -0.5800   -3.7550 C   0  0  0  0  0  0  0  0  0  0  0  0
    1.7530   -1.0320   -6.0310 C   0  0  0  0  0  0  0  0  0  0  0  0
    1.5740   -0.1740   -2.8750 O   0  0  0  0  0  0  0  0  0  0  0  0
   -0.5050   -0.0910   -3.9350 N   0  0  0  0  0  0  0  0  0  0  0  0
   -1.0410    0.9220   -3.0320 C   0  0  2  0  0  0  0  0  0  0  0  0
   -1.1600    0.3770   -1.6130 C   0  0  0  0  0  0  0  0  0  0  0  0
   -2.4090    1.4060   -3.5220 C   0  0  0  0  0  0  0  0  0  0  0  0
   -0.8580    1.0810   -0.6460 O   0  0  0  0  0  0  0  0  0  0  0  0
   -2.4320    2.7540   -4.2440 C   0  0  0  0  0  0  0  0  0  0  0  0
   -3.2810    2.6630   -5.5080 C   0  0  0  0  0  0  0  0  0  0  0  0
   -2.9570    3.8470   -3.3190 C   0  0  0  0  0  0  0  0  0  0  0  0
   -1.7200   -0.9440   -1.5650 N   0  0  0  0  0  0  0  0  0  0  0  0
   -1.8880   -1.5560   -0.2520 C   0  0  2  0  0  0  0  0  0  0  0  0
   -0.5510   -1.6640    0.4730 C   0  0  0  0  0  0  0  0  0  0  0  0
   -2.5250   -2.9420   -0.3830 C   0  0  0  0  0  0  0  0  0  0  0  0
   -0.4750   -1.4380    1.6820 O   0  0  0  0  0  0  0  0  0  0  0  0
   -4.0440   -2.9770   -0.5550 C   0  0  0  0  0  0  0  0  0  0  0  0
   -4.4830   -4.3220   -1.1230 C   0  0  0  0  0  0  0  0  0  0  0  0
   -4.7390   -2.6990    0.7730 C   0  0  0  0  0  0  0  0  0  0  0  0
    0.5540   -2.0750   -0.2960 N   0  0  0  0  0  0  0  0  0  0  0  0
    1.8700   -2.2110    0.3200 C   0  0  2  0  0  0  0  0  0  0  0  0
    2.3580   -0.8460    0.8010 C   0  0  0  0  0  0  0  0  0  0  0  0
    2.8930   -2.8290   -0.6580 C   0  0  0  0  0  0  0  0  0  0  0  0
    2.9610   -0.7380    1.8710 O   0  0  0  0  0  0  0  0  0  0  0  0
    4.2980   -2.8020   -0.0590 C   0  0  0  0  0  0  0  0  0  0  0  0
    2.4900   -4.2580   -1.0180 C   0  0  0  0  0  0  0  0  0  0  0  0
    2.0310    0.2020    0.0160 N   0  0  0  0  0  0  0  0  0  0  0  0
    2.4630    1.5410    0.3970 C   0  0  2  0  0  0  0  0  0  0  0  0
    1.7680    1.9910    1.6760 C   0  0  0  0  0  0  0  0  0  0  0  0
    2.1830    2.5390   -0.7320 C   0  0  0  0  0  0  0  0  0  0  0  0
    2.3960    2.5850    2.5540 O   0  0  0  0  0  0  0  0  0  0  0  0
    3.2490    2.5680   -1.7940 C   0  0  0  0  0  0  0  0  0  0  0  0
    4.4570    3.2160   -1.5700 C   0  0  0  0  0  0  0  0  0  0  0  0
    3.0410    1.9460   -3.0190 C   0  0  0  0  0  0  0  0  0  0  0  0
    5.4450    3.2440   -2.5520 C   0  0  0  0  0  0  0  0  0  0  0  0
    4.0240    1.9690   -4.0050 C   0  0  0  0  0  0  0  0  0  0  0  0
    5.2240    2.6200   -3.7700 C   0  0  0  0  0  0  0  0  0  0  0  0
    0.4560    1.7190    1.8630 N   0  0  0  0  0  0  0  0  0  0  0  0
   -0.3140    2.1460    3.0250 C   0  0  2  0  0  0  0  0  0  0  0  0
    0.0290    1.2970    4.2430 C   0  0  0  0  0  0  0  0  0  0  0  0
   -1.8160    2.0670    2.7350 C   0  0  0  0  0  0  0  0  0  0  0  0
   -0.0410    1.7730    5.3780 O   0  0  0  0  0  0  0  0  0  0  0  0
   -2.3230    3.1730    1.8490 C   0  0  0  0  0  0  0  0  0  0  0  0
   -2.4240    4.4740    2.3280 C   0  0  0  0  0  0  0  0  0  0  0  0
   -2.6980    2.9120    0.5380 C   0  0  0  0  0  0  0  0  0  0  0  0
   -2.8920    5.5000    1.5100 C   0  0  0  0  0  0  0  0  0  0  0  0
   -3.1670    3.9320   -0.2850 C   0  0  0  0  0  0  0  0  0  0  0  0
   -3.2650    5.2250    0.2040 C   0  0  0  0  0  0  0  0  0  0  0  0
    0.2820   -0.0160    3.9340 N   0  0  0  0  0  0  0  0  0  0  0  0
    0.6090   -0.9090    5.0430 C   0  0  2  0  0  0  0  0  0  0  0  0
    1.8730   -0.4480    5.7650 C   0  0  0  0  0  0  0  0  0  0  0  0
    0.7800   -2.3410    4.5410 C   0  0  0  0  0  0  0  0  0  0  0  0
    1.9670   -0.5490    6.9900 O   0  0  0  0  0  0  0  0  0  0  0  0
    2.8110   -0.0290    4.9720 N   0  0  0  0  0  0  0  0  0  0  0  0
    4.0440    0.4270    5.5920 C   0  0  0  0  0  0  0  0  0  0  0  0
    3.9090    1.7800    6.2650 C   0  0  0  0  0  0  0  0  0  0  0  0
    4.7490    2.1600    7.0830 O   0  0  0  0  0  0  0  0  0  0  0  0
    2.8500    2.6350    5.8040 N   0  0  0  0  0  0  0  0  0  0  0  0
    2.6830    3.9780    6.3520 C   0  0  2  0  0  0  0  0  0  0  0  0
    2.1550    3.9290    7.7820 C   0  0  0  0  0  0  0  0  0  0  0  0
    1.7350    4.7990    5.4770 C   0  0  0  0  0  0  0  0  0  0  0  0
    2.3300    4.8810    8.5460 O   0  0  0  0  0  0  0  0  0  0  0  0
    0.4780    4.1560    5.3560 O   0  0  0  0  0  0  0  0  0  0  0  0
    1.4700    2.7410    8.0900 N   0  0  0  0  0  0  0  0  0  0  0  0
    0.9350    2.6820    9.4470 C   0  0  2  0  0  0  0  0  0  0  0  0
    2.0480    2.7720   10.4850 C   0  0  0  0  0  0  0  0  0  0  0  0
    0.1360    1.3950    9.6530 C   0  0  0  0  0  0  0  0  0  0  0  0
    1.9010    3.4510   11.5030 O   0  0  0  0  0  0  0  0  0  0  0  0
    1.0040    0.2870    9.8220 O   0  0  0  0  0  0  0  0  0  0  0  0
    3.1660    2.0670   10.1710 N   0  0  0  0  0  0  0  0  0  0  0  0
    4.2400    2.1510   11.1560 C   0  0  2  0  0  0  0  0  0  0  0  0
    4.8700    3.5420   11.1650 C   0  0  0  0  0  0  0  0  0  0  0  0
    5.3090    1.0920   10.8760 C   0  0  0  0  0  0  0  0  0  0  0  0
    5.2690    4.0410   12.2190 O   0  0  0  0  0  0  0  0  0  0  0  0
    5.8080    0.4060   12.1350 C   0  0  0  0  0  0  0  0  0  0  0  0
    5.0890    0.4090   13.1570 O   0  0  0  0  0  0  0  0  0  0  0  0
    6.9320   -0.1400   12.1060 O   0  0  0  0  0  0  0  0  0  0  0  0
    4.9420    4.2430    9.9860 N   0  0  0  0  0  0  0  0  0  0  0  0
    5.5150    5.5860    9.9460 C   0  0  2  0  0  0  0  0  0  0  0  0
    4.6770    6.5640   10.7640 C   0  0  0  0  0  0  0  0  0  0  0  0
    5.6350    6.0700    8.5030 C   0  0  0  0  0  0  0  0  0  0  0  0
    5.2140    7.4910   11.3750 O   0  0  0  0  0  0  0  0  0  0  0  0
    3.4360    6.3550   10.8460 N   0  0  0  0  0  0  0  0  0  0  0  0
    2.5600    7.2120   11.6380 C   0  0  2  0  0  0  0  0  0  0  0  0
    2.7380    6.9010   13.1220 C   0  0  0  0  0  0  0  0  0  0  0  0
    1.0800    7.0390   11.2290 C   0  0  2  0  0  0  0  0  0  0  0  0
    2.6240    7.7920   13.9670 O   0  0  0  0  0  0  0  0  0  0  0  0
    0.8670    7.5100    9.7850 C   0  0  0  0  0  0  0  0  0  0  0  0
    0.1610    7.7960   12.1930 C   0  0  0  0  0  0  0  0  0  0  0  0
   -0.5550    7.3200    9.2760 C   0  0  0  0  0  0  0  0  0  0  0  0
    3.0240    5.6730   13.3450 N   0  0  0  0  0  0  0  0  0  0  0  0
    3.1560    5.3410   14.7600 C   0  0  2  0  0  0  0  0  0  0  0  0
    4.5020    5.8040   15.3080 C   0  0  0  0  0  0  0  0  0  0  0  0
    2.9910    3.8360   14.9780 C   0  0  0  0  0  0  0  0  0  0  0  0
    4.6430    6.0300   16.5120 O   0  0  0  0  0  0  0  0  0  0  0  0
    2.6420    3.4550   16.4080 C   0  0  0  0  0  0  0  0  0  0  0  0
    2.2670    1.9840   16.5240 C   0  0  0  0  0  0  0  0  0  0  0  0
    3.4480    1.1360   16.6650 N   0  0  0  0  0  0  0  0  0  0  0  0
    2.4600   -0.3530   18.1290 N   0  0  0  0  0  0  0  0  0  0  0  0
    4.6380   -0.6510   17.4790 N   0  0  0  0  0  0  0  0  0  0  0  0
    3.5130    0.0460   17.4240 C   0  0  0  0  0  0  0  0  0  0  0  0
    5.3930    6.1160   14.4050 N   0  0  0  0  0  0  0  0  0  0  0  0
    6.6130    6.7130   14.9400 C   0  0  2  0  0  0  0  0  0  0  0  0
    6.4470    8.2160   15.1360 C   0  0  0  0  0  0  0  0  0  0  0  0
    7.7990    6.4330   14.0140 C   0  0  0  0  0  0  0  0  0  0  0  0
    6.9290    8.7750   16.1230 O   0  0  0  0  0  0  0  0  0  0  0  0
    8.3550    5.0240   14.1340 C   0  0  0  0  0  0  0  0  0  0  0  0
    9.5790    4.8230   13.2510 C   0  0  0  0  0  0  0  0  0  0  0  0
    9.9670    3.4170   13.1780 N   0  0  0  0  0  0  0  0  0  0  0  0
   11.8780    3.7950   11.9370 N   0  0  0  0  0  0  0  0  0  0  0  0
   11.3080    1.6610   12.5510 N   0  0  0  0  0  0  0  0  0  0  0  0
   11.0500    2.9610   12.5560 C   0  0  0  0  0  0  0  0  0  0  0  0
   -4.5523   -3.1026  -14.3948 H   0  0  0  0  0  0  0  0  0  0  0  0
   -4.5124   -4.5558  -13.5816 H   0  0  0  0  0  0  0  0  0  0  0  0
   -4.9585   -1.9445  -12.3825 H   0  0  0  0  0  0  0  0  0  0  0  0
   -6.7305   -3.7487  -13.6937 H   0  0  0  0  0  0  0  0  0  0  0  0
   -7.1248   -3.6313  -11.9628 H   0  0  0  0  0  0  0  0  0  0  0  0
   -7.3229   -1.2552  -12.1470 H   0  0  0  0  0  0  0  0  0  0  0  0
   -6.9248   -1.3603  -13.8682 H   0  0  0  0  0  0  0  0  0  0  0  0
  -10.8742   -0.4404  -13.1887 H   0  0  0  0  0  0  0  0  0  0  0  0
   -9.3387    0.2924  -13.5868 H   0  0  0  0  0  0  0  0  0  0  0  0
   -9.6399   -0.2774  -11.9627 H   0  0  0  0  0  0  0  0  0  0  0  0
   -4.9627   -5.5773  -11.7234 H   0  0  0  0  0  0  0  0  0  0  0  0
   -5.3607   -5.3483   -8.9703 H   0  0  0  0  0  0  0  0  0  0  0  0
   -4.2395   -7.4653  -10.7375 H   0  0  0  0  0  0  0  0  0  0  0  0
   -4.2156   -7.6276   -8.9639 H   0  0  0  0  0  0  0  0  0  0  0  0
   -6.6240   -7.3995   -8.9266 H   0  0  0  0  0  0  0  0  0  0  0  0
   -6.6235   -7.3458  -10.6883 H   0  0  0  0  0  0  0  0  0  0  0  0
   -5.6088   -9.5728  -10.7319 H   0  0  0  0  0  0  0  0  0  0  0  0
   -5.7242   -9.6238   -8.9737 H   0  0  0  0  0  0  0  0  0  0  0  0
   -8.1193   -9.4956   -9.0888 H   0  0  0  0  0  0  0  0  0  0  0  0
   -8.0381   -9.3502  -10.8448 H   0  0  0  0  0  0  0  0  0  0  0  0
   -7.1880  -11.6866   -9.2868 H   0  0  0  0  0  0  0  0  0  0  0  0
   -7.0981  -11.5370  -10.9432 H   0  0  0  0  0  0  0  0  0  0  0  0
   -2.4638   -5.2065  -10.9436 H   0  0  0  0  0  0  0  0  0  0  0  0
   -0.6556   -5.5766   -8.7925 H   0  0  0  0  0  0  0  0  0  0  0  0
   -0.3131   -4.2742  -11.4668 H   0  0  0  0  0  0  0  0  0  0  0  0
    1.0029   -4.4992  -10.2903 H   0  0  0  0  0  0  0  0  0  0  0  0
    0.7145   -6.8757  -10.3993 H   0  0  0  0  0  0  0  0  0  0  0  0
   -0.5848   -6.6514  -11.5830 H   0  0  0  0  0  0  0  0  0  0  0  0
    2.4554   -7.5495  -13.4383 H   0  0  0  0  0  0  0  0  0  0  0  0
    1.4811   -8.2932  -12.2529 H   0  0  0  0  0  0  0  0  0  0  0  0
   -2.1646   -2.8530  -10.1489 H   0  0  0  0  0  0  0  0  0  0  0  0
   -0.6182   -0.9071   -8.7768 H   0  0  0  0  0  0  0  0  0  0  0  0
   -3.4262   -0.6642   -9.8314 H   0  0  0  0  0  0  0  0  0  0  0  0
   -1.9684   -0.3367  -10.7372 H   0  0  0  0  0  0  0  0  0  0  0  0
   -2.3937    0.6688   -9.3730 H   0  0  0  0  0  0  0  0  0  0  0  0
   -3.6182   -2.5827   -8.0106 H   0  0  0  0  0  0  0  0  0  0  0  0
   -4.1859   -1.0630   -5.6876 H   0  0  0  0  0  0  0  0  0  0  0  0
   -5.0317   -3.8618   -6.3649 H   0  0  0  0  0  0  0  0  0  0  0  0
   -6.0970   -2.0251   -4.2409 H   0  0  0  0  0  0  0  0  0  0  0  0
   -5.1655   -3.4768   -3.9616 H   0  0  0  0  0  0  0  0  0  0  0  0
   -6.7599   -3.5843   -4.6683 H   0  0  0  0  0  0  0  0  0  0  0  0
   -6.4803   -1.2408   -6.6362 H   0  0  0  0  0  0  0  0  0  0  0  0
   -7.1408   -2.8134   -7.0155 H   0  0  0  0  0  0  0  0  0  0  0  0
   -5.8109   -2.1753   -7.9521 H   0  0  0  0  0  0  0  0  0  0  0  0
   -2.4977   -3.9892   -6.2802 H   0  0  0  0  0  0  0  0  0  0  0  0
   -1.9722   -4.5626   -3.5632 H   0  0  0  0  0  0  0  0  0  0  0  0
   -0.6496   -5.3796   -6.1056 H   0  0  0  0  0  0  0  0  0  0  0  0
    0.0452   -5.8117   -4.5351 H   0  0  0  0  0  0  0  0  0  0  0  0
   -0.9352   -7.6350   -6.5569 H   0  0  0  0  0  0  0  0  0  0  0  0
   -2.2146   -8.5083   -5.8439 H   0  0  0  0  0  0  0  0  0  0  0  0
   -0.1909   -2.6850   -5.9132 H   0  0  0  0  0  0  0  0  0  0  0  0
    2.0638   -2.2048   -4.2825 H   0  0  0  0  0  0  0  0  0  0  0  0
    0.9546   -0.4870   -6.4897 H   0  0  0  0  0  0  0  0  0  0  0  0
    2.0883   -1.8005   -6.6957 H   0  0  0  0  0  0  0  0  0  0  0  0
    2.5631   -0.3662   -5.8181 H   0  0  0  0  0  0  0  0  0  0  0  0
   -1.0601   -0.4351   -4.6716 H   0  0  0  0  0  0  0  0  0  0  0  0
   -0.3622    1.7490   -3.0228 H   0  0  0  0  0  0  0  0  0  0  0  0
   -2.7936    0.6688   -4.1955 H   0  0  0  0  0  0  0  0  0  0  0  0
   -2.9956    1.5457   -2.6381 H   0  0  0  0  0  0  0  0  0  0  0  0
   -1.4315    3.0075   -4.5263 H   0  0  0  0  0  0  0  0  0  0  0  0
   -4.2867    2.4099   -5.2447 H   0  0  0  0  0  0  0  0  0  0  0  0
   -2.8807    1.9090   -6.1530 H   0  0  0  0  0  0  0  0  0  0  0  0
   -3.2711    3.6063   -6.0130 H   0  0  0  0  0  0  0  0  0  0  0  0
   -3.9585    3.6135   -3.0235 H   0  0  0  0  0  0  0  0  0  0  0  0
   -2.9464    4.7851   -3.8335 H   0  0  0  0  0  0  0  0  0  0  0  0
   -2.3344    3.9092   -2.4510 H   0  0  0  0  0  0  0  0  0  0  0  0
   -1.9807   -1.4187   -2.3872 H   0  0  0  0  0  0  0  0  0  0  0  0
   -2.5369   -0.9290    0.3231 H   0  0  0  0  0  0  0  0  0  0  0  0
   -2.0895   -3.4215   -1.2346 H   0  0  0  0  0  0  0  0  0  0  0  0
   -2.3323   -3.4332    0.5478 H   0  0  0  0  0  0  0  0  0  0  0  0
   -4.3264   -2.2109   -1.2465 H   0  0  0  0  0  0  0  0  0  0  0  0
   -4.2088   -5.1024   -0.4443 H   0  0  0  0  0  0  0  0  0  0  0  0
   -4.0038   -4.4846   -2.0658 H   0  0  0  0  0  0  0  0  0  0  0  0
   -5.5445   -4.3230   -1.2576 H   0  0  0  0  0  0  0  0  0  0  0  0
   -4.4703   -3.4547    1.4813 H   0  0  0  0  0  0  0  0  0  0  0  0
   -5.7992   -2.7060    0.6290 H   0  0  0  0  0  0  0  0  0  0  0  0
   -4.4353   -1.7412    1.1409 H   0  0  0  0  0  0  0  0  0  0  0  0
    0.4386   -2.2716   -1.2537 H   0  0  0  0  0  0  0  0  0  0  0  0
    1.7795   -2.8731    1.1556 H   0  0  0  0  0  0  0  0  0  0  0  0
    2.9003   -2.2426   -1.5530 H   0  0  0  0  0  0  0  0  0  0  0  0
    4.3141   -3.3835    0.8391 H   0  0  0  0  0  0  0  0  0  0  0  0
    4.5708   -1.7919    0.1652 H   0  0  0  0  0  0  0  0  0  0  0  0
    4.9932   -3.2117   -0.7617 H   0  0  0  0  0  0  0  0  0  0  0  0
    2.4777   -4.8589   -0.1327 H   0  0  0  0  0  0  0  0  0  0  0  0
    3.1948   -4.6627   -1.7140 H   0  0  0  0  0  0  0  0  0  0  0  0
    1.5153   -4.2532   -1.4594 H   0  0  0  0  0  0  0  0  0  0  0  0
    1.5062    0.0636   -0.8054 H   0  0  0  0  0  0  0  0  0  0  0  0
    3.5175    1.5095    0.5758 H   0  0  0  0  0  0  0  0  0  0  0  0
    1.2542    2.2751   -1.1931 H   0  0  0  0  0  0  0  0  0  0  0  0
    2.1575    3.5125   -0.2887 H   0  0  0  0  0  0  0  0  0  0  0  0
    4.6248    3.6825   -0.6649 H   0  0  0  0  0  0  0  0  0  0  0  0
    2.1480    1.4615   -3.2001 H   0  0  0  0  0  0  0  0  0  0  0  0
    6.3388    3.7279   -2.3731 H   0  0  0  0  0  0  0  0  0  0  0  0
    3.8587    1.5015   -4.9100 H   0  0  0  0  0  0  0  0  0  0  0  0
    5.9525    2.6404   -4.5007 H   0  0  0  0  0  0  0  0  0  0  0  0
   -0.0093    1.1986    1.1688 H   0  0  0  0  0  0  0  0  0  0  0  0
   -0.0576    3.1632    3.2360 H   0  0  0  0  0  0  0  0  0  0  0  0
   -2.0183    1.1317    2.2562 H   0  0  0  0  0  0  0  0  0  0  0  0
   -2.3200    2.1642    3.6738 H   0  0  0  0  0  0  0  0  0  0  0  0
   -2.1492    4.6822    3.3007 H   0  0  0  0  0  0  0  0  0  0  0  0
   -2.6282    1.9506    0.1694 H   0  0  0  0  0  0  0  0  0  0  0  0
   -2.9607    6.4626    1.8758 H   0  0  0  0  0  0  0  0  0  0  0  0
   -3.4414    3.7256   -1.2582 H   0  0  0  0  0  0  0  0  0  0  0  0
   -3.6153    5.9820   -0.4036 H   0  0  0  0  0  0  0  0  0  0  0  0
    0.2448   -0.3418    3.0057 H   0  0  0  0  0  0  0  0  0  0  0  0
   -0.2024   -0.8811    5.7400 H   0  0  0  0  0  0  0  0  0  0  0  0
    1.5898   -2.3798    3.8427 H   0  0  0  0  0  0  0  0  0  0  0  0
   -0.1211   -2.6605    4.0604 H   0  0  0  0  0  0  0  0  0  0  0  0
    0.9911   -2.9861    5.3682 H   0  0  0  0  0  0  0  0  0  0  0  0
    2.6928   -0.0204    3.9947 H   0  0  0  0  0  0  0  0  0  0  0  0
    4.7990    0.4964    4.8370 H   0  0  0  0  0  0  0  0  0  0  0  0
    4.2995   -0.2821    6.3514 H   0  0  0  0  0  0  0  0  0  0  0  0
    2.2301    2.3116    5.1109 H   0  0  0  0  0  0  0  0  0  0  0  0
    3.6448    4.4467    6.3632 H   0  0  0  0  0  0  0  0  0  0  0  0
    1.5948    5.7628    5.9202 H   0  0  0  0  0  0  0  0  0  0  0  0
    2.1657    4.8963    4.5023 H   0  0  0  0  0  0  0  0  0  0  0  0
    0.0771    4.0619    6.2342 H   0  0  0  0  0  0  0  0  0  0  0  0
    1.3598    2.0075    7.4426 H   0  0  0  0  0  0  0  0  0  0  0  0
    0.2854    3.5224    9.5760 H   0  0  0  0  0  0  0  0  0  0  0  0
   -0.4855    1.2270    8.7983 H   0  0  0  0  0  0  0  0  0  0  0  0
   -0.4631    1.4996   10.5334 H   0  0  0  0  0  0  0  0  0  0  0  0
    1.5528    0.1823    9.0290 H   0  0  0  0  0  0  0  0  0  0  0  0
    3.2457    1.5402    9.3431 H   0  0  0  0  0  0  0  0  0  0  0  0
    3.8150    1.9681   12.1208 H   0  0  0  0  0  0  0  0  0  0  0  0
    6.1389    1.5644   10.3933 H   0  0  0  0  0  0  0  0  0  0  0  0
    4.8621    0.3414   10.2581 H   0  0  0  0  0  0  0  0  0  0  0  0
    4.2517    0.8292   13.1395 H   0  0  0  0  0  0  0  0  0  0  0  0
    4.6029    3.8348    9.1568 H   0  0  0  0  0  0  0  0  0  0  0  0
    6.4928    5.5423   10.3784 H   0  0  0  0  0  0  0  0  0  0  0  0
    4.6619    6.1174    8.0606 H   0  0  0  0  0  0  0  0  0  0  0  0
    6.2462    5.3892    7.9481 H   0  0  0  0  0  0  0  0  0  0  0  0
    6.0810    7.0425    8.4889 H   0  0  0  0  0  0  0  0  0  0  0  0
    3.0469    5.5914   10.3615 H   0  0  0  0  0  0  0  0  0  0  0  0
    2.8316    8.2302   11.4524 H   0  0  0  0  0  0  0  0  0  0  0  0
    0.8307    5.9998   11.2831 H   0  0  0  0  0  0  0  0  0  0  0  0
    1.1073    8.5513    9.7317 H   0  0  0  0  0  0  0  0  0  0  0  0
    1.5005    6.9092    9.1664 H   0  0  0  0  0  0  0  0  0  0  0  0
    0.3902    8.8406   12.1581 H   0  0  0  0  0  0  0  0  0  0  0  0
    0.3096    7.4313   13.1879 H   0  0  0  0  0  0  0  0  0  0  0  0
   -0.8587    7.6449   11.9064 H   0  0  0  0  0  0  0  0  0  0  0  0
   -1.2270    7.9054    9.8681 H   0  0  0  0  0  0  0  0  0  0  0  0
   -0.8243    6.2869    9.3473 H   0  0  0  0  0  0  0  0  0  0  0  0
   -0.6133    7.6341    8.2548 H   0  0  0  0  0  0  0  0  0  0  0  0
    3.1442    5.0115   12.6258 H   0  0  0  0  0  0  0  0  0  0  0  0
    2.3809    5.8541   15.2900 H   0  0  0  0  0  0  0  0  0  0  0  0
    3.9101    3.3549   14.7160 H   0  0  0  0  0  0  0  0  0  0  0  0
    2.1729    3.5212   14.3643 H   0  0  0  0  0  0  0  0  0  0  0  0
    1.8146    4.0504   16.7332 H   0  0  0  0  0  0  0  0  0  0  0  0
    3.5032    3.6285   17.0188 H   0  0  0  0  0  0  0  0  0  0  0  0
    1.7330    1.6916   15.6441 H   0  0  0  0  0  0  0  0  0  0  0  0
    1.6616    1.8615   17.3977 H   0  0  0  0  0  0  0  0  0  0  0  0
    1.6205    0.1600   18.0931 H   0  0  0  0  0  0  0  0  0  0  0  0
    2.5192   -1.1617   18.6874 H   0  0  0  0  0  0  0  0  0  0  0  0
    5.4224   -0.3614   16.9593 H   0  0  0  0  0  0  0  0  0  0  0  0
    4.6898   -1.4587   18.0396 H   0  0  0  0  0  0  0  0  0  0  0  0
    5.2532    5.9612   13.4428 H   0  0  0  0  0  0  0  0  0  0  0  0
    6.8050    6.2675   15.8937 H   0  0  0  0  0  0  0  0  0  0  0  0
    5.9272    8.7693   14.4370 H   0  0  0  0  0  0  0  0  0  0  0  0
    7.4807    6.5846   13.0038 H   0  0  0  0  0  0  0  0  0  0  0  0
    8.5829    7.1017   14.3027 H   0  0  0  0  0  0  0  0  0  0  0  0
    8.6295    4.8454   15.1527 H   0  0  0  0  0  0  0  0  0  0  0  0
    7.5978    4.3389   13.8144 H   0  0  0  0  0  0  0  0  0  0  0  0
    9.3563    5.1730   12.2647 H   0  0  0  0  0  0  0  0  0  0  0  0
   10.3922    5.3718   13.6780 H   0  0  0  0  0  0  0  0  0  0  0  0
   12.6770    3.4462   11.4796 H   0  0  0  0  0  0  0  0  0  0  0  0
   11.6927    4.7619   11.9356 H   0  0  0  0  0  0  0  0  0  0  0  0
   12.1090    1.3199   12.0914 H   0  0  0  0  0  0  0  0  0  0  0  0
   10.6986    1.0365   13.0069 H   0  0  0  0  0  0  0  0  0  0  0  0
  1  2  1  0  0  0  0
  1161  1  0  0  0  0
  1162  1  0  0  0  0
  2  3  1  0  0  0  0
  2163  1  1  0  0  0
  3  9  1  0  0  0  0
  3  5  2  0  0  0  0
  4  2  1  0  0  0  0
  4164  1  0  0  0  0
  4165  1  0  0  0  0
  6  4  1  0  0  0  0
  6166  1  0  0  0  0
  6167  1  0  0  0  0
  7  6  1  0  0  0  0
  7  8  1  0  0  0  0
  8168  1  0  0  0  0
  8169  1  0  0  0  0
  8170  1  0  0  0  0
  9 10  1  0  0  0  0
  9171  1  0  0  0  0
 10 11  1  0  0  0  0
 10172  1  1  0  0  0
 11 13  2  0  0  0  0
 12 10  1  0  0  0  0
 12173  1  0  0  0  0
 12174  1  0  0  0  0
 14 12  1  0  0  0  0
 14175  1  0  0  0  0
 14176  1  0  0  0  0
 15 14  1  0  0  0  0
 15177  1  0  0  0  0
 15178  1  0  0  0  0
 16 15  1  0  0  0  0
 16179  1  0  0  0  0
 16180  1  0  0  0  0
 17 16  1  0  0  0  0
 17181  1  0  0  0  0
 17182  1  0  0  0  0
 18 19  1  0  0  0  0
 18 11  1  0  0  0  0
 18183  1  0  0  0  0
 19 20  1  0  0  0  0
 19184  1  1  0  0  0
 20 22  2  0  0  0  0
 21 19  1  0  0  0  0
 21185  1  0  0  0  0
 21186  1  0  0  0  0
 23 21  1  0  0  0  0
 23187  1  0  0  0  0
 23188  1  0  0  0  0
 24 23  1  0  0  0  0
 25 24  1  0  0  0  0
 25189  1  0  0  0  0
 25190  1  0  0  0  0
 26 24  2  0  0  0  0
 27 28  1  0  0  0  0
 27 20  1  0  0  0  0
 27191  1  0  0  0  0
 28 29  1  0  0  0  0
 28192  1  1  0  0  0
 29 32  1  0  0  0  0
 29 31  2  0  0  0  0
 30 28  1  0  0  0  0
 30193  1  0  0  0  0
 30194  1  0  0  0  0
 30195  1  0  0  0  0
 32 33  1  0  0  0  0
 32196  1  0  0  0  0
 33 34  1  0  0  0  0
 33197  1  1  0  0  0
 34 36  2  0  0  0  0
 35 33  1  0  0  0  0
 35 37  1  0  0  0  0
 35198  1  0  0  0  0
 37199  1  0  0  0  0
 37200  1  0  0  0  0
 37201  1  0  0  0  0
 38 35  1  0  0  0  0
 38202  1  0  0  0  0
 38203  1  0  0  0  0
 38204  1  0  0  0  0
 39 34  1  0  0  0  0
 39 40  1  0  0  0  0
 39205  1  0  0  0  0
 40 41  1  0  0  0  0
 40206  1  1  0  0  0
 41 43  2  0  0  0  0
 42 44  1  0  0  0  0
 42 40  1  0  0  0  0
 42207  1  0  0  0  0
 42208  1  0  0  0  0
 44 46  2  0  0  0  0
 45 44  1  0  0  0  0
 45209  1  0  0  0  0
 45210  1  0  0  0  0
 47 48  1  0  0  0  0
 47 41  1  0  0  0  0
 47211  1  0  0  0  0
 48 49  1  0  0  0  0
 48212  1  1  0  0  0
 49 51  2  0  0  0  0
 50 48  1  0  0  0  0
 50213  1  0  0  0  0
 50214  1  0  0  0  0
 50215  1  0  0  0  0
 52 49  1  0  0  0  0
 52 53  1  0  0  0  0
 52216  1  0  0  0  0
 53 54  1  0  0  0  0
 53217  1  1  0  0  0
 54 60  1  0  0  0  0
 54 56  2  0  0  0  0
 55 53  1  0  0  0  0
 55218  1  0  0  0  0
 55219  1  0  0  0  0
 57 55  1  0  0  0  0
 57 59  1  0  0  0  0
 57220  1  0  0  0  0
 58 57  1  0  0  0  0
 58221  1  0  0  0  0
 58222  1  0  0  0  0
 58223  1  0  0  0  0
 59224  1  0  0  0  0
 59225  1  0  0  0  0
 59226  1  0  0  0  0
 60 61  1  0  0  0  0
 60227  1  0  0  0  0
 61 62  1  0  0  0  0
 61228  1  1  0  0  0
 62 64  2  0  0  0  0
 63 61  1  0  0  0  0
 63229  1  0  0  0  0
 63230  1  0  0  0  0
 65 63  1  0  0  0  0
 65 67  1  0  0  0  0
 65231  1  0  0  0  0
 66 65  1  0  0  0  0
 66232  1  0  0  0  0
 66233  1  0  0  0  0
 66234  1  0  0  0  0
 67235  1  0  0  0  0
 67236  1  0  0  0  0
 67237  1  0  0  0  0
 68 69  1  0  0  0  0
 68 62  1  0  0  0  0
 68238  1  0  0  0  0
 69 70  1  0  0  0  0
 69239  1  1  0  0  0
 70 72  2  0  0  0  0
 71 73  1  0  0  0  0
 71 69  1  0  0  0  0
 71240  1  0  0  0  0
 73241  1  0  0  0  0
 73242  1  0  0  0  0
 73243  1  0  0  0  0
 74 71  1  0  0  0  0
 74244  1  0  0  0  0
 74245  1  0  0  0  0
 74246  1  0  0  0  0
 75 76  1  0  0  0  0
 75 70  1  0  0  0  0
 75247  1  0  0  0  0
 76 77  1  0  0  0  0
 76248  1  1  0  0  0
 77 86  1  0  0  0  0
 77 79  2  0  0  0  0
 78 76  1  0  0  0  0
 78249  1  0  0  0  0
 78250  1  0  0  0  0
 80 81  1  0  0  0  0
 80 78  1  0  0  0  0
 81251  1  0  0  0  0
 82 80  2  0  0  0  0
 82252  1  0  0  0  0
 83 81  2  0  0  0  0
 83253  1  0  0  0  0
 84 85  2  0  0  0  0
 84 82  1  0  0  0  0
 84254  1  0  0  0  0
 85 83  1  0  0  0  0
 85255  1  0  0  0  0
 86 87  1  0  0  0  0
 86256  1  0  0  0  0
 87 88  1  0  0  0  0
 87257  1  1  0  0  0
 88 90  2  0  0  0  0
 89 87  1  0  0  0  0
 89258  1  0  0  0  0
 89259  1  0  0  0  0
 91 92  1  0  0  0  0
 91 89  1  0  0  0  0
 92260  1  0  0  0  0
 93 91  2  0  0  0  0
 93261  1  0  0  0  0
 94 92  2  0  0  0  0
 94262  1  0  0  0  0
 95 96  2  0  0  0  0
 95 93  1  0  0  0  0
 95263  1  0  0  0  0
 96 94  1  0  0  0  0
 96264  1  0  0  0  0
 97 88  1  0  0  0  0
 97 98  1  0  0  0  0
 97265  1  0  0  0  0
 98 99  1  0  0  0  0
 98266  1  1  0  0  0
 99101  2  0  0  0  0
100 98  1  0  0  0  0
100267  1  0  0  0  0
100268  1  0  0  0  0
100269  1  0  0  0  0
102103  1  0  0  0  0
102 99  1  0  0  0  0
102270  1  0  0  0  0
103104  1  0  0  0  0
103271  1  0  0  0  0
103272  1  0  0  0  0
104105  2  0  0  0  0
106104  1  0  0  0  0
106107  1  0  0  0  0
106273  1  0  0  0  0
107108  1  0  0  0  0
107274  1  1  0  0  0
108112  1  0  0  0  0
108110  2  0  0  0  0
109107  1  0  0  0  0
109275  1  0  0  0  0
109276  1  0  0  0  0
111109  1  0  0  0  0
111277  1  0  0  0  0
112113  1  0  0  0  0
112278  1  0  0  0  0
113115  1  0  0  0  0
113114  1  0  0  0  0
113279  1  1  0  0  0
114116  2  0  0  0  0
115117  1  0  0  0  0
115280  1  0  0  0  0
115281  1  0  0  0  0
117282  1  0  0  0  0
118114  1  0  0  0  0
118119  1  0  0  0  0
118283  1  0  0  0  0
119120  1  0  0  0  0
119284  1  1  0  0  0
120122  2  0  0  0  0
121119  1  0  0  0  0
121123  1  0  0  0  0
121285  1  0  0  0  0
121286  1  0  0  0  0
123124  1  0  0  0  0
124287  1  0  0  0  0
125123  2  0  0  0  0
126120  1  0  0  0  0
126288  1  0  0  0  0
127126  1  0  0  0  0
127128  1  0  0  0  0
127289  1  1  0  0  0
128131  1  0  0  0  0
128130  2  0  0  0  0
129127  1  0  0  0  0
129290  1  0  0  0  0
129291  1  0  0  0  0
129292  1  0  0  0  0
131132  1  0  0  0  0
131293  1  0  0  0  0
132133  1  0  0  0  0
132294  1  6  0  0  0
133139  1  0  0  0  0
133135  2  0  0  0  0
134132  1  0  0  0  0
134137  1  0  0  0  0
134295  1  1  0  0  0
136134  1  0  0  0  0
136296  1  0  0  0  0
136297  1  0  0  0  0
137298  1  0  0  0  0
137299  1  0  0  0  0
137300  1  0  0  0  0
138136  1  0  0  0  0
138301  1  0  0  0  0
138302  1  0  0  0  0
138303  1  0  0  0  0
139140  1  0  0  0  0
139304  1  0  0  0  0
140142  1  0  0  0  0
140141  1  0  0  0  0
140305  1  1  0  0  0
141143  2  0  0  0  0
142144  1  0  0  0  0
142306  1  0  0  0  0
142307  1  0  0  0  0
144145  1  0  0  0  0
144308  1  0  0  0  0
144309  1  0  0  0  0
145146  1  0  0  0  0
145310  1  0  0  0  0
145311  1  0  0  0  0
146149  2  0  0  0  0
147312  1  0  0  0  0
147313  1  0  0  0  0
148314  1  0  0  0  0
148315  1  0  0  0  0
149148  1  0  0  0  0
149147  1  0  0  0  0
150151  1  0  0  0  0
150141  1  0  0  0  0
150316  1  0  0  0  0
151152  1  0  0  0  0
151317  1  1  0  0  0
152154  2  0  0  0  0
152318  1  0  0  0  0
153155  1  0  0  0  0
153151  1  0  0  0  0
153319  1  0  0  0  0
153320  1  0  0  0  0
155321  1  0  0  0  0
155322  1  0  0  0  0
156155  1  0  0  0  0
156323  1  0  0  0  0
156324  1  0  0  0  0
157156  1  0  0  0  0
158160  1  0  0  0  0
158325  1  0  0  0  0
158326  1  0  0  0  0
159160  1  0  0  0  0
159327  1  0  0  0  0
159328  1  0  0  0  0
160157  2  0  0  0  0
M  END
>  <HEADER>
                                            18-OCT-22                     

>  <TITLE>
    ESMFOLD V1 PREDICTION FOR INPUT

>  <REMARK>
   1                                                                      
   1 REFERENCE 1                                                          
   1  AUTH   ZEMING LIN, HALIL AKIN, ROSHAN RAO, BRIAN HIE, ZHONGKAI ZHU,
   1  AUTH 2 WENTING LU, NIKITA SMETANIN, ROBERT VERKUIL, ORI KABELI,
   1  AUTH 3 YANIV SHMUELI, ALLAN DOS SANTOS COSTA,
   1  AUTH 4 MARYAM FAZEL-ZARANDI, TOM SERCU, SALVATORE CANDIDO,
   1  AUTH 5 ALEXANDER RIVES
   1  TITL   EVOLUTIONARY-SCALE PREDICTION OF ATOMIC LEVEL PROTEIN
   1  TITL 2 STRUCTURE WITH A LANGUAGE MODEL
   1  REF                                                                 
   1  REFN                                                                
   1  PMID                                                                
   1  DOI    10.1101/2022.07.20.500902                                    
   1                                                                      
   1 LICENSE AND DISCLAIMERS                
   1 ESM METAGENOMIC ATLAS DATA IS AVAILABLE UNDER
   1 A CC-BY-4.0 LICENSE FOR ACADEMIC AND COMMERCIAL USE.
   1 COPYRIGHT (C) META PLATFORMS, INC. ALL RIGHTS RESERVED.
   1 USE OF THE ESM METAGENOMIC ATLAS DATA IS SUBJECT
   1 TO THE META OPEN SOURCE TERMS OF USE AND PRIVACY POLICY.

$$$$
